ipss.test.plugin.core/testData/adpter/psse/v30/twoBus_cmpldw.raw
0,    100.00, 30 / PSS(tm)E-30 RAW created by rawd30  SUN, OCT 07 2012  11:29
 00/00/01                      100.0  0    0
 0
     1,'BUS-1       ',  115.000,3,     0.000,     0.000,   1,   1,1.01000,   0.0000,   1
     3,'BUS-/3       ',  115.000,1,     0.000,     0.000,   1,   1,1.000,   4.6600,   1
 0 / END OF BUS DATA, BEGIN LOAD DATA
     3,'1 ',1,   1,   1,   20.000,    5.000,     0.000,     0.000,     0.000,     0.000,   1
 0 / END OF LOAD DATA, BEGIN GENERATOR DATA
     1,'1 ',    21.640,    7.050,  9999.000, -9999.000,0.98000,     0,   1000.00,   0.00000,    0.2,   0.00000,   0.00000,1.00000,1,  100.0,  9999.000, -9999.000,   1,1.0000,   0,0.0000,   0,0.0000,   0,0.0000
 0 / END OF GENERATOR DATA, BEGIN NON-TRANSFORMER BRANCH DATA
     1,      3,'0 ',   0.0001,   0.001,   0.0,    0.00,    0.00,    0.00,  0.00000,  0.00000,  0.00000,  0.00000,1,   0.00,   1,1.0000,   0,0.0000,   0,0.0000,   0,0.0000
 0 / END OF NON-TRANSFORMER BRANCH DATA, BEGIN TRANSFORMER DATA
 0 / END OF TRANSFORMER DATA, BEGIN AREA INTERCHANGE DATA
 0 / END OF AREA INTERCHANGE DATA, BEGIN TWO-TERMINAL DC DATA
 0 / END OF TWO-TERMINAL DC DATA, BEGIN VSC DC LINE DATA
 0 / END OF VSC DC LINE DATA, BEGIN SWITCHED SHUNT DATA
 0 / END OF SWITCHED SHUNT DATA, BEGIN TRANS. IMP. CORR. TABLE DATA
 0 / END OF TRANS. IMP. CORR. TABLE DATA, BEGIN MULTI-TERMINAL DC LINE DATA
 0 / END OF MULTI-TERMINAL DC LINE DATA, BEGIN MULTI-SECTION LINE DATA
 0 / END OF MULTI-SECTION LINE DATA, BEGIN ZONE DATA
 0 / END OF ZONE DATA, BEGIN INTERAREA TRANSFER DATA
 0 / END OF INTERAREA TRANSFER DATA, BEGIN OWNER DATA
 0 / END OF OWNER DATA, BEGIN FACTS DEVICE DATA
 0 / END OF FACTS DEVICE DATA, END OF CASE DATA
